[TITLE]


[JUNCTIONS]
;ID              	Elev        	Demand      	Pattern         
;NFLOURS    Value
;PRESS_DRIVEN    Ref.press   Tresh.press
 1               	1000.00     	0           	                	;
; NFLOURS     	1           
; PRESS_DRIVEN	14.276	-1.0        
 2               	982.00      	0           	                	;
; NFLOURS     	1           
; PRESS_DRIVEN	14.276	-1.0        
 3               	995.00      	0           	                	;
; NFLOURS     	1           
; PRESS_DRIVEN	14.276	-1.0        
 4               	986.00      	0           	                	;
; NFLOURS     	1           
; PRESS_DRIVEN	14.276	-1.0        
 5               	1000.00     	0           	                	;
; NFLOURS     	1           
; PRESS_DRIVEN	14.276	-1.0        
 6               	995.00      	0           	                	;
; NFLOURS     	1           
; PRESS_DRIVEN	14.276	-1.0        
 7               	984.50      	0           	                	;
; NFLOURS     	1           
; PRESS_DRIVEN	14.276	-1.0        
 8               	1006.00     	0           	                	;
; NFLOURS     	1           
; PRESS_DRIVEN	14.276	-1.0        
 9               	981.00      	0           	                	;
; NFLOURS     	1           
; PRESS_DRIVEN	14.276	-1.0        
 10              	1003.50     	0           	                	;
; NFLOURS     	1           
; PRESS_DRIVEN	14.276	-1.0        
 11              	1000.00     	0           	                	;
; NFLOURS     	1           
; PRESS_DRIVEN	14.276	-1.0        
 12              	988.00      	0           	                	;
; NFLOURS     	1           
; PRESS_DRIVEN	14.276	-1.0        
 13              	994.00      	0           	                	;
; NFLOURS     	1           
; PRESS_DRIVEN	14.276	-1.0        
 14              	997.00      	0           	                	;
; NFLOURS     	1           
; PRESS_DRIVEN	14.276	-1.0        
 15              	1007.00     	0           	                	;
; NFLOURS     	1           
; PRESS_DRIVEN	14.276	-1.0        
 16              	1002.00     	0           	                	;
; NFLOURS     	1           
; PRESS_DRIVEN	14.276	-1.0        
 17              	988.00      	0           	                	;
; NFLOURS     	1           
; PRESS_DRIVEN	14.276	-1.0        
 18              	987.00      	0           	                	;
; NFLOURS     	1           
; PRESS_DRIVEN	14.276	-1.0        
 19              	984.00      	0           	                	;
; NFLOURS     	1           
; PRESS_DRIVEN	14.276	-1.0        
 20              	980.00      	0           	                	;
; NFLOURS     	1           
; PRESS_DRIVEN	14.276	-1.0        
 21              	1015.00     	0           	                	;
; NFLOURS     	1           
; PRESS_DRIVEN	14.276	-1.0        
 22              	992.00      	0           	                	;
; NFLOURS     	1           
; PRESS_DRIVEN	14.276	-1.0        
 23              	985.00      	0           	                	;
; NFLOURS     	1           
; PRESS_DRIVEN	14.276	-1.0        
 24              	991.00      	0           	                	;
; NFLOURS     	1           
; PRESS_DRIVEN	14.276	-1.0        
 25              	991.00      	0           	                	;
; NFLOURS     	1           
; PRESS_DRIVEN	14.276	-1.0        
 26              	1002.00     	0           	                	;
; NFLOURS     	1           
; PRESS_DRIVEN	14.276	-1.0        
 27              	999.00      	0           	                	;
; NFLOURS     	1           
; PRESS_DRIVEN	14.276	-1.0        
 28              	999.00      	0           	                	;
; NFLOURS     	1           
; PRESS_DRIVEN	14.276	-1.0        
 29              	997.00      	0           	                	;
; NFLOURS     	1           
; PRESS_DRIVEN	14.276	-1.0        
 30              	985.00      	0           	                	;
; NFLOURS     	1           
; PRESS_DRIVEN	14.276	-1.0        
 31              	978.00      	0           	                	;
; NFLOURS     	1           
; PRESS_DRIVEN	14.276	-1.0        
 32              	990.50      	0           	                	;
; NFLOURS     	1           
; PRESS_DRIVEN	14.276	-1.0        
 33              	1000.00     	0           	                	;
; NFLOURS     	1           
; PRESS_DRIVEN	14.276	-1.0        
 34              	1000.00     	0           	                	;
; NFLOURS     	1           
; PRESS_DRIVEN	14.276	-1.0        
 35              	992.00      	0           	                	;
; NFLOURS     	1           
; PRESS_DRIVEN	14.276	-1.0        
 36              	991.00      	0           	                	;
; NFLOURS     	1           
; PRESS_DRIVEN	14.276	-1.0        
 37              	986.00      	0           	                	;
; NFLOURS     	1           
; PRESS_DRIVEN	14.276	-1.0        
 38              	995.00      	0           	                	;
; NFLOURS     	1           
; PRESS_DRIVEN	14.276	-1.0        
 39              	994.00      	0           	                	;
; NFLOURS     	1           
; PRESS_DRIVEN	14.276	-1.0        
 40              	990.00      	0           	                	;
; NFLOURS     	1           
; PRESS_DRIVEN	14.276	-1.0        
 41              	977.00      	0           	                	;
; NFLOURS     	1           
; PRESS_DRIVEN	14.276	-1.0        
 42              	988.00      	0           	                	;
; NFLOURS     	1           
; PRESS_DRIVEN	14.276	-1.0        
 43              	1001.00     	0           	                	;
; NFLOURS     	1           
; PRESS_DRIVEN	14.276	-1.0        
 44              	992.00      	0           	                	;
; NFLOURS     	1           
; PRESS_DRIVEN	14.276	-1.0        
 45              	1011.00     	0           	                	;
; NFLOURS     	1           
; PRESS_DRIVEN	14.276	-1.0        
 46              	999.00      	0           	                	;
; NFLOURS     	1           
; PRESS_DRIVEN	14.276	-1.0        
 47              	1002.00     	0           	                	;
; NFLOURS     	1           
; PRESS_DRIVEN	14.276	-1.0        
 48              	996.00      	0           	                	;
; NFLOURS     	1           
; PRESS_DRIVEN	14.276	-1.0        
 49              	986.00      	0           	                	;
; NFLOURS     	1           
; PRESS_DRIVEN	14.276	-1.0        
 50              	998.00      	0           	                	;
; NFLOURS     	1           
; PRESS_DRIVEN	14.276	-1.0        
 51              	1002.00     	0           	                	;
; NFLOURS     	1           
; PRESS_DRIVEN	14.276	-1.0        
 52              	1005.00     	0           	                	;
; NFLOURS     	1           
; PRESS_DRIVEN	14.276	-1.0        
 53              	999.00      	0           	                	;
; NFLOURS     	1           
; PRESS_DRIVEN	14.276	-1.0        
 54              	988.00      	0           	                	;
; NFLOURS     	1           
; PRESS_DRIVEN	14.276	-1.0        
 55              	1005.00     	0           	                	;
; NFLOURS     	1           
; PRESS_DRIVEN	14.276	-1.0        
 56              	978.00      	0           	                	;
; NFLOURS     	1           
; PRESS_DRIVEN	14.276	-1.0        
 57              	1002.00     	0           	                	;
; NFLOURS     	1           
; PRESS_DRIVEN	14.276	-1.0        
 58              	993.50      	0           	                	;
; NFLOURS     	1           
; PRESS_DRIVEN	14.276	-1.0        
 59              	980.00      	0           	                	;
; NFLOURS     	1           
; PRESS_DRIVEN	14.276	-1.0        
 60              	995.00      	0           	                	;
; NFLOURS     	1           
; PRESS_DRIVEN	14.276	-1.0        
 61              	996.00      	0           	                	;
; NFLOURS     	1           
; PRESS_DRIVEN	14.276	-1.0        
 62              	981.00      	0           	                	;
; NFLOURS     	1           
; PRESS_DRIVEN	14.276	-1.0        
 63              	1011.00     	0           	                	;
; NFLOURS     	1           
; PRESS_DRIVEN	14.276	-1.0        
 64              	983.00      	0           	                	;
; NFLOURS     	1           
; PRESS_DRIVEN	14.276	-1.0        
 65              	976.00      	0           	                	;
; NFLOURS     	1           
; PRESS_DRIVEN	14.276	-1.0        
 66              	977.00      	0           	                	;
; NFLOURS     	1           
; PRESS_DRIVEN	14.276	-1.0        
 67              	989.00      	0           	                	;
; NFLOURS     	1           
; PRESS_DRIVEN	14.276	-1.0        
 68              	991.00      	0           	                	;
; NFLOURS     	1           
; PRESS_DRIVEN	14.276	-1.0        
 69              	979.00      	0           	                	;
; NFLOURS     	1           
; PRESS_DRIVEN	14.276	-1.0        
 70              	1009.00     	0           	                	;
; NFLOURS     	1           
; PRESS_DRIVEN	14.276	-1.0        
 71              	988.00      	0           	                	;
; NFLOURS     	1           
; PRESS_DRIVEN	14.276	-1.0        
 72              	989.00      	0           	                	;
; NFLOURS     	1           
; PRESS_DRIVEN	14.276	-1.0        
 73              	998.00      	0           	                	;
; NFLOURS     	1           
; PRESS_DRIVEN	14.276	-1.0        
 74              	994.00      	0           	                	;
; NFLOURS     	1           
; PRESS_DRIVEN	14.276	-1.0        
 75              	1008.00     	0           	                	;
; NFLOURS     	1           
; PRESS_DRIVEN	14.276	-1.0        
 76              	990.00      	0           	                	;
; NFLOURS     	1           
; PRESS_DRIVEN	14.276	-1.0        
 77              	993.00      	0           	                	;
; NFLOURS     	1           
; PRESS_DRIVEN	14.276	-1.0        
 78              	995.00      	0           	                	;
; NFLOURS     	1           
; PRESS_DRIVEN	14.276	-1.0        
 79              	1006.00     	0           	                	;
; NFLOURS     	1           
; PRESS_DRIVEN	14.276	-1.0        
 80              	1001.50     	0           	                	;
; NFLOURS     	1           
; PRESS_DRIVEN	14.276	-1.0        
 81              	994.00      	0           	                	;
; NFLOURS     	1           
; PRESS_DRIVEN	14.276	-1.0        
 82              	977.31      	0           	                	;
; NFLOURS     	1           
; PRESS_DRIVEN	14.276	-1.0        
 83              	994.00      	0           	                	;
; NFLOURS     	1           
; PRESS_DRIVEN	14.276	-1.0        
 84              	984.00      	0           	                	;
; NFLOURS     	1           
; PRESS_DRIVEN	14.276	-1.0        
 85              	999.00      	0           	                	;
; NFLOURS     	1           
; PRESS_DRIVEN	14.276	-1.0        
 86              	988.25      	0           	                	;
; NFLOURS     	1           
; PRESS_DRIVEN	14.276	-1.0        
 87              	999.00      	0           	                	;
; NFLOURS     	1           
; PRESS_DRIVEN	14.276	-1.0        
 88              	988.00      	0           	                	;
; NFLOURS     	1           
; PRESS_DRIVEN	14.276	-1.0        
 89              	989.00      	0           	                	;
; NFLOURS     	1           
; PRESS_DRIVEN	14.276	-1.0        
 90              	986.63      	0           	                	;
; NFLOURS     	1           
; PRESS_DRIVEN	14.276	-1.0        
 91              	998.00      	0           	                	;
; NFLOURS     	1           
; PRESS_DRIVEN	14.276	-1.0        
 92              	994.00      	0           	                	;
; NFLOURS     	1           
; PRESS_DRIVEN	14.276	-1.0        
 93              	992.00      	0           	                	;
; NFLOURS     	1           
; PRESS_DRIVEN	14.276	-1.0        
 94              	999.00      	0           	                	;
; NFLOURS     	1           
; PRESS_DRIVEN	14.276	-1.0        
 95              	988.00      	0           	                	;
; NFLOURS     	1           
; PRESS_DRIVEN	14.276	-1.0        
 96              	1001.00     	0           	                	;
; NFLOURS     	1           
; PRESS_DRIVEN	14.276	-1.0        
 97              	997.00      	0           	                	;
; NFLOURS     	1           
; PRESS_DRIVEN	14.276	-1.0        
 98              	1002.00     	0           	                	;
; NFLOURS     	1           
; PRESS_DRIVEN	14.276	-1.0        
 99              	1001.00     	0           	                	;
; NFLOURS     	1           
; PRESS_DRIVEN	14.276	-1.0        
 100             	1004.00     	0           	                	;
; NFLOURS     	1           
; PRESS_DRIVEN	14.276	-1.0        
 101             	994.00      	0           	                	;
; NFLOURS     	1           
; PRESS_DRIVEN	14.276	-1.0        
 102             	991.00      	0           	                	;
; NFLOURS     	1           
; PRESS_DRIVEN	14.276	-1.0        
 103             	989.00      	0           	                	;
; NFLOURS     	1           
; PRESS_DRIVEN	14.276	-1.0        
 104             	998.00      	0           	                	;
; NFLOURS     	1           
; PRESS_DRIVEN	14.276	-1.0        
 105             	988.00      	0           	                	;
; NFLOURS     	1           
; PRESS_DRIVEN	14.276	-1.0        
 106             	978.00      	0           	                	;
; NFLOURS     	1           
; PRESS_DRIVEN	14.276	-1.0        
 107             	1002.00     	0           	                	;
; NFLOURS     	1           
; PRESS_DRIVEN	14.276	-1.0        
 108             	1000.00     	0           	                	;
; NFLOURS     	1           
; PRESS_DRIVEN	14.276	-1.0        
 109             	987.00      	0           	                	;
; NFLOURS     	1           
; PRESS_DRIVEN	14.276	-1.0        
 110             	983.00      	0           	                	;
; NFLOURS     	1           
; PRESS_DRIVEN	14.276	-1.0        
 111             	988.00      	0           	                	;
; NFLOURS     	1           
; PRESS_DRIVEN	14.276	-1.0        
 112             	999.00      	0           	                	;
; NFLOURS     	1           
; PRESS_DRIVEN	14.276	-1.0        
 113             	990.00      	0           	                	;
; NFLOURS     	1           
; PRESS_DRIVEN	14.276	-1.0        
 114             	990.00      	0           	                	;
; NFLOURS     	1           
; PRESS_DRIVEN	14.276	-1.0        
 115             	999.25      	0           	                	;
; NFLOURS     	1           
; PRESS_DRIVEN	14.276	-1.0        
 116             	1001.00     	0           	                	;
; NFLOURS     	1           
; PRESS_DRIVEN	14.276	-1.0        
 117             	984.50      	0           	                	;
; NFLOURS     	1           
; PRESS_DRIVEN	14.276	-1.0        
 118             	993.00      	0           	                	;
; NFLOURS     	1           
; PRESS_DRIVEN	14.276	-1.0        
 119             	987.00      	0           	                	;
; NFLOURS     	1           
; PRESS_DRIVEN	14.276	-1.0        
 120             	983.00      	0           	                	;
; NFLOURS     	1           
; PRESS_DRIVEN	14.276	-1.0        
 121             	1006.00     	0           	                	;
; NFLOURS     	1           
; PRESS_DRIVEN	14.276	-1.0        
 122             	1003.00     	0           	                	;
; NFLOURS     	1           
; PRESS_DRIVEN	14.276	-1.0        
 123             	986.00      	0           	                	;
; NFLOURS     	1           
; PRESS_DRIVEN	14.276	-1.0        
 124             	985.00      	0           	                	;
; NFLOURS     	1           
; PRESS_DRIVEN	14.276	-1.0        
 125             	999.00      	0           	                	;
; NFLOURS     	1           
; PRESS_DRIVEN	14.276	-1.0        
 126             	1000.00     	0           	                	;
; NFLOURS     	1           
; PRESS_DRIVEN	14.276	-1.0        
 127             	988.00      	0           	                	;
; NFLOURS     	1           
; PRESS_DRIVEN	14.276	-1.0        
 128             	995.00      	0           	                	;
; NFLOURS     	1           
; PRESS_DRIVEN	14.276	-1.0        
 129             	992.00      	0           	                	;
; NFLOURS     	1           
; PRESS_DRIVEN	14.276	-1.0        
 130             	980.00      	0           	                	;
; NFLOURS     	1           
; PRESS_DRIVEN	14.276	-1.0        
 131             	991.00      	0           	                	;
; NFLOURS     	1           
; PRESS_DRIVEN	14.276	-1.0        
 132             	985.00      	0           	                	;
; NFLOURS     	1           
; PRESS_DRIVEN	14.276	-1.0        
 133             	1003.00     	0           	                	;
; NFLOURS     	1           
; PRESS_DRIVEN	14.276	-1.0        
 134             	1005.00     	0           	                	;
; NFLOURS     	1           
; PRESS_DRIVEN	14.276	-1.0        
 135             	1001.00     	0           	                	;
; NFLOURS     	1           
; PRESS_DRIVEN	14.276	-1.0        
 136             	983.00      	0           	                	;
; NFLOURS     	1           
; PRESS_DRIVEN	14.276	-1.0        
 137             	978.00      	0           	                	;
; NFLOURS     	1           
; PRESS_DRIVEN	14.276	-1.0        
 138             	991.50      	0           	                	;
; NFLOURS     	1           
; PRESS_DRIVEN	14.276	-1.0        
 139             	997.00      	0           	                	;
; NFLOURS     	1           
; PRESS_DRIVEN	14.276	-1.0        
 140             	991.00      	0           	                	;
; NFLOURS     	1           
; PRESS_DRIVEN	14.276	-1.0        
 141             	1004.00     	0           	                	;
; NFLOURS     	1           
; PRESS_DRIVEN	14.276	-1.0        
 142             	983.00      	0           	                	;
; NFLOURS     	1           
; PRESS_DRIVEN	14.276	-1.0        
 143             	979.31      	0           	                	;
; NFLOURS     	1           
; PRESS_DRIVEN	14.276	-1.0        
 144             	1007.00     	0           	                	;
; NFLOURS     	1           
; PRESS_DRIVEN	14.276	-1.0        
 145             	987.00      	0           	                	;
; NFLOURS     	1           
; PRESS_DRIVEN	14.276	-1.0        
 146             	992.00      	0           	                	;
; NFLOURS     	1           
; PRESS_DRIVEN	14.276	-1.0        
 147             	982.00      	0           	                	;
; NFLOURS     	1           
; PRESS_DRIVEN	14.276	-1.0        
 148             	978.50      	0           	                	;
; NFLOURS     	1           
; PRESS_DRIVEN	14.276	-1.0        
 149             	980.00      	0           	                	;
; NFLOURS     	1           
; PRESS_DRIVEN	14.276	-1.0        
 150             	994.00      	0           	                	;
; NFLOURS     	1           
; PRESS_DRIVEN	14.276	-1.0        
 151             	987.00      	0           	                	;
; NFLOURS     	1           
; PRESS_DRIVEN	14.276	-1.0        
 152             	995.00      	0           	                	;
; NFLOURS     	1           
; PRESS_DRIVEN	14.276	-1.0        
 153             	993.00      	0           	                	;
; NFLOURS     	1           
; PRESS_DRIVEN	14.276	-1.0        
 154             	978.00      	0           	                	;
; NFLOURS     	1           
; PRESS_DRIVEN	14.276	-1.0        
 155             	987.00      	0           	                	;
; NFLOURS     	1           
; PRESS_DRIVEN	14.276	-1.0        
 156             	991.00      	0           	                	;
; NFLOURS     	1           
; PRESS_DRIVEN	14.276	-1.0        
 157             	989.00      	0           	                	;
; NFLOURS     	1           
; PRESS_DRIVEN	14.276	-1.0        
 158             	1001.00     	0           	                	;
; NFLOURS     	1           
; PRESS_DRIVEN	14.276	-1.0        
 159             	992.00      	0           	                	;
; NFLOURS     	1           
; PRESS_DRIVEN	14.276	-1.0        
 160             	988.00      	0           	                	;
; NFLOURS     	1           
; PRESS_DRIVEN	14.276	-1.0        
 161             	1000.00     	0           	                	;
; NFLOURS     	1           
; PRESS_DRIVEN	14.276	-1.0        
 162             	987.00      	0           	                	;
; NFLOURS     	1           
; PRESS_DRIVEN	14.276	-1.0        
 163             	990.00      	0           	                	;
; NFLOURS     	1           
; PRESS_DRIVEN	14.276	-1.0        
 164             	984.00      	0           	                	;
; NFLOURS     	1           
; PRESS_DRIVEN	14.276	-1.0        
 165             	994.00      	0           	                	;
; NFLOURS     	1           
; PRESS_DRIVEN	14.276	-1.0        
 166             	996.50      	0           	                	;
; NFLOURS     	1           
; PRESS_DRIVEN	14.276	-1.0        
 167             	978.00      	0           	                	;
; NFLOURS     	1           
; PRESS_DRIVEN	14.276	-1.0        
 168             	990.00      	0           	                	;
; NFLOURS     	1           
; PRESS_DRIVEN	14.276	-1.0        
 169             	985.00      	0           	                	;
; NFLOURS     	1           
; PRESS_DRIVEN	14.276	-1.0        
 170             	988.00      	0           	                	;
; NFLOURS     	1           
; PRESS_DRIVEN	14.276	-1.0        
 171             	976.00      	0           	                	;
; NFLOURS     	1           
; PRESS_DRIVEN	14.276	-1.0        
 172             	979.00      	0           	                	;
; NFLOURS     	1           
; PRESS_DRIVEN	14.276	-1.0        
 173             	998.00      	0           	                	;
; NFLOURS     	1           
; PRESS_DRIVEN	14.276	-1.0        
 174             	1001.00     	0           	                	;
; NFLOURS     	1           
; PRESS_DRIVEN	14.276	-1.0        
 175             	990.00      	0           	                	;
; NFLOURS     	1           
; PRESS_DRIVEN	14.276	-1.0        
 176             	990.00      	0           	                	;
; NFLOURS     	1           
; PRESS_DRIVEN	14.276	-1.0        
 177             	1006.00     	0           	                	;
; NFLOURS     	1           
; PRESS_DRIVEN	14.276	-1.0        
 178             	1005.00     	0           	                	;
; NFLOURS     	1           
; PRESS_DRIVEN	14.276	-1.0        
 179             	993.00      	0           	                	;
; NFLOURS     	1           
; PRESS_DRIVEN	14.276	-1.0        
 180             	988.50      	0           	                	;
; NFLOURS     	1           
; PRESS_DRIVEN	14.276	-1.0        
 181             	1002.00     	0           	                	;
; NFLOURS     	1           
; PRESS_DRIVEN	14.276	-1.0        
 182             	979.00      	0           	                	;
; NFLOURS     	1           
; PRESS_DRIVEN	14.276	-1.0        
 183             	998.00      	0           	                	;
; NFLOURS     	1           
; PRESS_DRIVEN	14.276	-1.0        
 184             	1004.00     	0           	                	;
; NFLOURS     	1           
; PRESS_DRIVEN	14.276	-1.0        
 185             	1005.00     	0           	                	;
; NFLOURS     	1           
; PRESS_DRIVEN	14.276	-1.0        
 186             	973.00      	0           	                	;
; NFLOURS     	1           
; PRESS_DRIVEN	14.276	-1.0        
 187             	989.00      	0           	                	;
; NFLOURS     	1           
; PRESS_DRIVEN	14.276	-1.0        
 188             	1007.00     	0           	                	;
; NFLOURS     	1           
; PRESS_DRIVEN	14.276	-1.0        
 189             	1001.00     	0           	                	;
; NFLOURS     	1           
; PRESS_DRIVEN	14.276	-1.0        
 190             	992.00      	0           	                	;
; NFLOURS     	1           
; PRESS_DRIVEN	14.276	-1.0        
 191             	989.25      	0           	                	;
; NFLOURS     	1           
; PRESS_DRIVEN	14.276	-1.0        
 192             	979.50      	0           	                	;
; NFLOURS     	1           
; PRESS_DRIVEN	14.276	-1.0        
 193             	982.00      	0           	                	;
; NFLOURS     	1           
; PRESS_DRIVEN	14.276	-1.0        
 194             	1000.00     	0           	                	;
; NFLOURS     	1           
; PRESS_DRIVEN	14.276	-1.0        
 195             	983.00      	0           	                	;
; NFLOURS     	1           
; PRESS_DRIVEN	14.276	-1.0        
 196             	989.00      	0           	                	;
; NFLOURS     	1           
; PRESS_DRIVEN	14.276	-1.0        
 197             	986.00      	0           	                	;
; NFLOURS     	1           
; PRESS_DRIVEN	14.276	-1.0        
 198             	1006.00     	0           	                	;
; NFLOURS     	1           
; PRESS_DRIVEN	14.276	-1.0        
 199             	976.00      	0           	                	;
; NFLOURS     	1           
; PRESS_DRIVEN	14.276	-1.0        
 200             	1001.00     	0           	                	;
; NFLOURS     	1           
; PRESS_DRIVEN	14.276	-1.0        

[RESERVOIRS]
;ID              	Head        	Pattern         
 202             	3045.00     	                	;

[TANKS]
;ID              	Elevation   	InitLevel   	MinLevel    	MaxLevel    	Diameter    	MinVol      	VolCurve

[PIPES]
;ID              	Node1           	Node2           	Length      	Diameter    	Roughness   	MinorLoss   	Status
; SIZINGDATA	 Bulk coeff. 	Wall coeff. 	Diam. Zone   	Material    	Is Sizable  	D. Coeff.   	Demand Patt 	Loss Coeff. 	Loss Patt   
 1               	1               	57              	446.71      	12          	100         	0           	Open  	;
; SIZINGDATA      	""          	""          	0           	            	Yes         	1.0         	""          	1.0         	""          	;Used in Network Sizing
 2               	1               	152             	273.40      	12          	100         	0           	Open  	;
; SIZINGDATA      	""          	""          	0           	            	Yes         	1.0         	""          	1.0         	""          	;Used in Network Sizing
 3               	1               	200             	1448.65     	12          	100         	0           	Open  	;
; SIZINGDATA      	""          	""          	0           	            	Yes         	1.0         	""          	1.0         	""          	;Used in Network Sizing
 4               	2               	167             	738.20      	12          	100         	0           	Open  	;
; SIZINGDATA      	""          	""          	0           	            	Yes         	1.0         	""          	1.0         	""          	;Used in Network Sizing
 5               	2               	106             	682.50      	12          	100         	0           	Open  	;
; SIZINGDATA      	""          	""          	0           	            	Yes         	1.0         	""          	1.0         	""          	;Used in Network Sizing
 6               	2               	59              	641.16      	12          	100         	0           	Open  	;
; SIZINGDATA      	""          	""          	0           	            	Yes         	1.0         	""          	1.0         	""          	;Used in Network Sizing
 7               	3               	165             	569.84      	12          	100         	0           	Open  	;
; SIZINGDATA      	""          	""          	0           	            	Yes         	1.0         	""          	1.0         	""          	;Used in Network Sizing
 8               	4               	12              	622.01      	12          	100         	0           	Open  	;
; SIZINGDATA      	""          	""          	0           	            	Yes         	1.0         	""          	1.0         	""          	;Used in Network Sizing
 9               	4               	32              	115.00      	12          	100         	0           	Open  	;
; SIZINGDATA      	""          	""          	0           	            	Yes         	1.0         	""          	1.0         	""          	;Used in Network Sizing
 10              	4               	72              	845.00      	12          	100         	0           	Open  	;
; SIZINGDATA      	""          	""          	0           	            	Yes         	1.0         	""          	1.0         	""          	;Used in Network Sizing
 11              	5               	181             	1014.74     	12          	100         	0           	Open  	;
; SIZINGDATA      	""          	""          	0           	            	Yes         	1.0         	""          	1.0         	""          	;Used in Network Sizing
 12              	5               	158             	312.77      	12          	100         	0           	Open  	;
; SIZINGDATA      	""          	""          	0           	            	Yes         	1.0         	""          	1.0         	""          	;Used in Network Sizing
 13              	5               	46              	712.44      	12          	100         	0           	Open  	;
; SIZINGDATA      	""          	""          	0           	            	Yes         	1.0         	""          	1.0         	""          	;Used in Network Sizing
 14              	6               	74              	569.32      	12          	100         	0           	Open  	;
; SIZINGDATA      	""          	""          	0           	            	Yes         	1.0         	""          	1.0         	""          	;Used in Network Sizing
 15              	6               	146             	776.42      	12          	100         	0           	Open  	;
; SIZINGDATA      	""          	""          	0           	            	Yes         	1.0         	""          	1.0         	""          	;Used in Network Sizing