[TITLE]


[JUNCTIONS]
;ID              	Elev        	Demand      	Pattern         
;NFLOURS    Value
;PRESS_DRIVEN    Ref.press   Tresh.press
 1               	1000.00     	0           	                	;
; NFLOURS     	1           
; PRESS_DRIVEN	14.276	-1.0        
 2               	992.00      	0           	                	;
; NFLOURS     	1           
; PRESS_DRIVEN	14.276	-1.0        
 3               	996.00      	0           	                	;
; NFLOURS     	1           
; PRESS_DRIVEN	14.276	-1.0        
 4               	999.00      	0           	                	;
; NFLOURS     	1           
; PRESS_DRIVEN	14.276	-1.0        
 5               	991.00      	0           	                	;
; NFLOURS     	1           
; PRESS_DRIVEN	14.276	-1.0        
 6               	1001.50     	0           	                	;
; NFLOURS     	1           
; PRESS_DRIVEN	14.276	-1.0        
 7               	1003.67     	0           	                	;
; NFLOURS     	1           
; PRESS_DRIVEN	14.276	-1.0        
 8               	993.50      	0           	                	;
; NFLOURS     	1           
; PRESS_DRIVEN	14.276	-1.0        
 9               	997.00      	0           	                	;
; NFLOURS     	1           
; PRESS_DRIVEN	14.276	-1.0        
 10              	990.00      	0           	                	;
; NFLOURS     	1           
; PRESS_DRIVEN	14.276	-1.0        
 11              	1000.00     	0           	                	;
; NFLOURS     	1           
; PRESS_DRIVEN	14.276	-1.0        
 12              	991.00      	0           	                	;
; NFLOURS     	1           
; PRESS_DRIVEN	14.276	-1.0        
 13              	996.00      	0           	                	;
; NFLOURS     	1           
; PRESS_DRIVEN	14.276	-1.0        
 14              	1002.00     	0           	                	;
; NFLOURS     	1           
; PRESS_DRIVEN	14.276	-1.0        
 15              	993.00      	0           	                	;
; NFLOURS     	1           
; PRESS_DRIVEN	14.276	-1.0        
 16              	992.00      	0           	                	;
; NFLOURS     	1           
; PRESS_DRIVEN	14.276	-1.0        
 17              	993.00      	0           	                	;
; NFLOURS     	1           
; PRESS_DRIVEN	14.276	-1.0        
 18              	1000.25     	0           	                	;
; NFLOURS     	1           
; PRESS_DRIVEN	14.276	-1.0        
 19              	999.00      	0           	                	;
; NFLOURS     	1           
; PRESS_DRIVEN	14.276	-1.0        
 20              	997.00      	0           	                	;
; NFLOURS     	1           
; PRESS_DRIVEN	14.276	-1.0        
 21              	993.50      	0           	                	;
; NFLOURS     	1           
; PRESS_DRIVEN	14.276	-1.0        
 22              	1000.00     	0           	                	;
; NFLOURS     	1           
; PRESS_DRIVEN	14.276	-1.0        
 23              	999.00      	0           	                	;
; NFLOURS     	1           
; PRESS_DRIVEN	14.276	-1.0        
 24              	997.00      	0           	                	;
; NFLOURS     	1           
; PRESS_DRIVEN	14.276	-1.0        
 25              	1002.00     	0           	                	;
; NFLOURS     	1           
; PRESS_DRIVEN	14.276	-1.0        
 26              	999.00      	0           	                	;
; NFLOURS     	1           
; PRESS_DRIVEN	14.276	-1.0        
 27              	997.00      	0           	                	;
; NFLOURS     	1           
; PRESS_DRIVEN	14.276	-1.0        
 28              	1007.00     	0           	                	;
; NFLOURS     	1           
; PRESS_DRIVEN	14.276	-1.0        
 29              	1002.00     	0           	                	;
; NFLOURS     	1           
; PRESS_DRIVEN	14.276	-1.0        
 30              	1003.00     	0           	                	;
; NFLOURS     	1           
; PRESS_DRIVEN	14.276	-1.0        
 31              	1002.00     	0           	                	;
; NFLOURS     	1           
; PRESS_DRIVEN	14.276	-1.0        
 32              	997.00      	0           	                	;
; NFLOURS     	1           
; PRESS_DRIVEN	14.276	-1.0        
 33              	997.00      	0           	                	;
; NFLOURS     	1           
; PRESS_DRIVEN	14.276	-1.0        
 34              	1007.00     	0           	                	;
; NFLOURS     	1           
; PRESS_DRIVEN	14.276	-1.0        
 35              	1000.00     	0           	                	;
; NFLOURS     	1           
; PRESS_DRIVEN	14.276	-1.0        
 36              	997.00      	0           	                	;
; NFLOURS     	1           
; PRESS_DRIVEN	14.276	-1.0        
 37              	1001.00     	0           	                	;
; NFLOURS     	1           
; PRESS_DRIVEN	14.276	-1.0        
 38              	1001.25     	0           	                	;
; NFLOURS     	1           
; PRESS_DRIVEN	14.276	-1.0        
 39              	987.00      	0           	                	;
; NFLOURS     	1           
; PRESS_DRIVEN	14.276	-1.0        
 40              	999.00      	0           	                	;
; NFLOURS     	1           
; PRESS_DRIVEN	14.276	-1.0        
 41              	1003.00     	0           	                	;
; NFLOURS     	1           
; PRESS_DRIVEN	14.276	-1.0        
 42              	997.00      	0           	                	;
; NFLOURS     	1           
; PRESS_DRIVEN	14.276	-1.0        
 43              	991.00      	0           	                	;
; NFLOURS     	1           
; PRESS_DRIVEN	14.276	-1.0        
 44              	1000.00     	0           	                	;
; NFLOURS     	1           
; PRESS_DRIVEN	14.276	-1.0        
 45              	997.00      	0           	                	;
; NFLOURS     	1           
; PRESS_DRIVEN	14.276	-1.0        
 46              	994.00      	0           	                	;
; NFLOURS     	1           
; PRESS_DRIVEN	14.276	-1.0        
 47              	1003.00     	0           	                	;
; NFLOURS     	1           
; PRESS_DRIVEN	14.276	-1.0        
 48              	994.00      	0           	                	;
; NFLOURS     	1           
; PRESS_DRIVEN	14.276	-1.0        
 49              	990.00      	0           	                	;
; NFLOURS     	1           
; PRESS_DRIVEN	14.276	-1.0        
 50              	994.00      	0           	                	;
; NFLOURS     	1           
; PRESS_DRIVEN	14.276	-1.0        
 51              	999.00      	0           	                	;
; NFLOURS     	1           
; PRESS_DRIVEN	14.276	-1.0        
 52              	1001.00     	0           	                	;
; NFLOURS     	1           
; PRESS_DRIVEN	14.276	-1.0        
 53              	1001.00     	0           	                	;
; NFLOURS     	1           
; PRESS_DRIVEN	14.276	-1.0        
 54              	998.00      	0           	                	;
; NFLOURS     	1           
; PRESS_DRIVEN	14.276	-1.0        
 55              	996.00      	0           	                	;
; NFLOURS     	1           
; PRESS_DRIVEN	14.276	-1.0        
 56              	993.00      	0           	                	;
; NFLOURS     	1           
; PRESS_DRIVEN	14.276	-1.0        
 57              	998.00      	0           	                	;
; NFLOURS     	1           
; PRESS_DRIVEN	14.276	-1.0        
 58              	1002.00     	0           	                	;
; NFLOURS     	1           
; PRESS_DRIVEN	14.276	-1.0        
 59              	1000.00     	0           	                	;
; NFLOURS     	1           
; PRESS_DRIVEN	14.276	-1.0        
 60              	1000.00     	0           	                	;
; NFLOURS     	1           
; PRESS_DRIVEN	14.276	-1.0        
 61              	1005.00     	0           	                	;
; NFLOURS     	1           
; PRESS_DRIVEN	14.276	-1.0        
 62              	995.00      	0           	                	;
; NFLOURS     	1           
; PRESS_DRIVEN	14.276	-1.0        
 63              	1002.00     	0           	                	;
; NFLOURS     	1           
; PRESS_DRIVEN	14.276	-1.0        
 64              	989.00      	0           	                	;
; NFLOURS     	1           
; PRESS_DRIVEN	14.276	-1.0        
 65              	1005.00     	0           	                	;
; NFLOURS     	1           
; PRESS_DRIVEN	14.276	-1.0        
 66              	986.00      	0           	                	;
; NFLOURS     	1           
; PRESS_DRIVEN	14.276	-1.0        
 67              	990.50      	0           	                	;
; NFLOURS     	1           
; PRESS_DRIVEN	14.276	-1.0        
 68              	988.00      	0           	                	;
; NFLOURS     	1           
; PRESS_DRIVEN	14.276	-1.0        
 69              	1001.00     	0           	                	;
; NFLOURS     	1           
; PRESS_DRIVEN	14.276	-1.0        
 70              	989.00      	0           	                	;
; NFLOURS     	1           
; PRESS_DRIVEN	14.276	-1.0        
 71              	997.00      	0           	                	;
; NFLOURS     	1           
; PRESS_DRIVEN	14.276	-1.0        
 72              	992.00      	0           	                	;
; NFLOURS     	1           
; PRESS_DRIVEN	14.276	-1.0        
 73              	1001.00     	0           	                	;
; NFLOURS     	1           
; PRESS_DRIVEN	14.276	-1.0        
 74              	987.00      	0           	                	;
; NFLOURS     	1           
; PRESS_DRIVEN	14.276	-1.0        
 75              	991.00      	0           	                	;
; NFLOURS     	1           
; PRESS_DRIVEN	14.276	-1.0        
 76              	984.00      	0           	                	;
; NFLOURS     	1           
; PRESS_DRIVEN	14.276	-1.0        
 77              	1003.00     	0           	                	;
; NFLOURS     	1           
; PRESS_DRIVEN	14.276	-1.0        
 78              	985.00      	0           	                	;
; NFLOURS     	1           
; PRESS_DRIVEN	14.276	-1.0        
 79              	993.00      	0           	                	;
; NFLOURS     	1           
; PRESS_DRIVEN	14.276	-1.0        
 80              	1003.00     	0           	                	;
; NFLOURS     	1           
; PRESS_DRIVEN	14.276	-1.0        
 81              	1001.00     	0           	                	;
; NFLOURS     	1           
; PRESS_DRIVEN	14.276	-1.0        
 82              	998.00      	0           	                	;
; NFLOURS     	1           
; PRESS_DRIVEN	14.276	-1.0        
 83              	992.00      	0           	                	;
; NFLOURS     	1           
; PRESS_DRIVEN	14.276	-1.0        
 84              	1003.00     	0           	                	;
; NFLOURS     	1           
; PRESS_DRIVEN	14.276	-1.0        
 85              	997.00      	0           	                	;
; NFLOURS     	1           
; PRESS_DRIVEN	14.276	-1.0        
 86              	1002.00     	0           	                	;
; NFLOURS     	1           
; PRESS_DRIVEN	14.276	-1.0        
 87              	998.00      	0           	                	;
; NFLOURS     	1           
; PRESS_DRIVEN	14.276	-1.0        
 88              	999.00      	0           	                	;
; NFLOURS     	1           
; PRESS_DRIVEN	14.276	-1.0        
 89              	996.00      	0           	                	;
; NFLOURS     	1           
; PRESS_DRIVEN	14.276	-1.0        
 90              	999.00      	0           	                	;
; NFLOURS     	1           
; PRESS_DRIVEN	14.276	-1.0        
 91              	1004.00     	0           	                	;
; NFLOURS     	1           
; PRESS_DRIVEN	14.276	-1.0        
 92              	999.00      	0           	                	;
; NFLOURS     	1           
; PRESS_DRIVEN	14.276	-1.0        
 93              	1001.00     	0           	                	;
; NFLOURS     	1           
; PRESS_DRIVEN	14.276	-1.0        
 94              	999.00      	0           	                	;
; NFLOURS     	1           
; PRESS_DRIVEN	14.276	-1.0        
 95              	993.00      	0           	                	;
; NFLOURS     	1           
; PRESS_DRIVEN	14.276	-1.0        
 96              	999.00      	0           	                	;
; NFLOURS     	1           
; PRESS_DRIVEN	14.276	-1.0        
 97              	1003.00     	0           	                	;
; NFLOURS     	1           
; PRESS_DRIVEN	14.276	-1.0        
 98              	1000.00     	0           	                	;
; NFLOURS     	1           
; PRESS_DRIVEN	14.276	-1.0        
 99              	990.00      	0           	                	;
; NFLOURS     	1           
; PRESS_DRIVEN	14.276	-1.0        
 100             	997.00      	0           	                	;
; NFLOURS     	1           
; PRESS_DRIVEN	14.276	-1.0        

[RESERVOIRS]
;ID              	Head        	Pattern         
 102             	2037.00     	                	;

[TANKS]
;ID              	Elevation   	InitLevel   	MinLevel    	MaxLevel    	Diameter    	MinVol      	VolCurve

[PIPES]
;ID              	Node1           	Node2           	Length      	Diameter    	Roughness   	MinorLoss   	Status
; SIZINGDATA	 Bulk coeff. 	Wall coeff. 	Diam. Zone   	Material    	Is Sizable  	D. Coeff.   	Demand Patt 	Loss Coeff. 	Loss Patt   
 1               	1               	58              	798.41      	12          	100         	0           	Open  	;
; SIZINGDATA      	""          	""          	0           	            	Yes         	1.0         	""          	1.0         	""          	;Used in Network Sizing
 2               	2               	21              	993.35      	12          	100         	0           	Open  	;
; SIZINGDATA      	""          	""          	0           	            	Yes         	1.0         	""          	1.0         	""          	;Used in Network Sizing
 3               	2               	75              	471.57      	12          	100         	0           	Open  	;
; SIZINGDATA      	""          	""          	0           	            	Yes         	1.0         	""          	1.0         	""          	;Used in Network Sizing
 4               	2               	95              	1120.97     	12          	100         	0           	Open  	;
; SIZINGDATA      	""          	""          	0           	            	Yes         	1.0         	""          	1.0         	""          	;Used in Network Sizing
 5               	3               	87              	886.18      	12          	100         	0           	Open  	;
; SIZINGDATA      	""          	""          	0           	            	Yes         	1.0         	""          	1.0         	""          	;Used in Network Sizing
 6               	3               	40              	1170.00     	12          	100         	0           	Open  	;
; SIZINGDATA      	""          	""          	0           	            	Yes         	1.0         	""          	1.0         	""          	;Used in Network Sizing
 7               	3               	46              	1268.95     	12          	100         	0           	Open  	;
; SIZINGDATA      	""          	""          	0           	            	Yes         	1.0         	""          	1.0         	""          	;Used in Network Sizing
 8               	4               	19              	1387.40     	12          	100         	0           	Open  	;
; SIZINGDATA      	""          	""          	0           	            	Yes         	1.0         	""          	1.0         	""          	;Used in Network Sizing
 9               	4               	7               	126.25      	12          	100         	0           	Open  	;
; SIZINGDATA      	""          	""          	0           	            	Yes         	1.0         	""          	1.0         	""          	;Used in Network Sizing
 10              	4               	77              	1069.36     	12          	100         	0           	Open  	;
; SIZINGDATA      	""          	""          	0           	            	Yes         	1.0         	""          	1.0         	""          	;Used in Network Sizing
 11              	5               	39              	464.30      	12          	100         	0           	Open  	;
; SIZINGDATA      	""          	""          	0           	            	Yes         	1.0         	""          	1.0         	""          	;Used in Network Sizing
 12              	5               	15              	1038.43     	12          	100         	0           	Open  	;
; SIZINGDATA      	""          	""          	0           	            	Yes         	1.0         	""          	1.0         	""          	;Used in Network Sizing
 13              	5               	79              	884.01      	12          	100         	0           	Open  	;
; SIZINGDATA      	""          	""          	0           	            	Yes         	1.0         	""          	1.0         	""          	;Used in Network Sizing
 14              	6               	86              	1196.44     	12          	100         	0           	Open  	;
; SIZINGDATA      	""          	""          	0           	            	Yes         	1.0         	""          	1.0         	""          	;Used in Network Sizing
 15              	6               	92              	350.49      	12          	100         	0           	Open  	;
; SIZINGDATA      	""          	""          	0           	            	Yes         	1.0         	""          	1.0         	""          	;Used in Network Sizing
 16              	6               	30              	432.47      	12          	100         	0           	Open  	;
; SIZINGDATA      	""          	""          	0           	            	Yes         	1.0         	""          	1.0         	""          	;Used in Network Sizing
 17              	7               	34              	387.33      	12          	100         	0           	Open  	;
; SIZINGDATA      	""          	""          	0           	            	Yes         	1.0         	""          	1.0         	""          	;Used in Network Sizing
 18              	7               	96              	1281.42     	12          	100         	0           	Open  	;
; SIZINGDATA      	""          	""          	0           	            	Yes         	1.0         	""          	1.0         	""          	;Used in Network Sizing
 19              	8               	67              	1806.82     	12          	100         	0           	Open  	;
; SIZINGDATA      	""          	""          	0           	            	Yes         	1.0         	""          	1.0         	""          	;Used in Network Sizing
 20              	9               	31              	229.01      	12          	100         	0           	Open  	;
; SIZINGDATA      	""          	""          	0           	            	Yes         	1.0         	""          	1.0         	""          	;Used in Network Sizing
 21              	10              	56              	849.62      	12          	100         	0           	Open  	;
; SIZINGDATA      	""          	""          	0           	            	Yes         	1.0         	""          	1.0         	""          	;Used in Network Sizing
 22              	10              	46              	409.89      	12          	100         	0           	Open  	;
; SIZINGDATA      	""          	""          	0           	            	Yes         	1.0         	""          	1.0         	""          	;Used in Network Sizing
 23              	10              	68              	1407.55     	12          	100         	0           	Open  	;
; SIZINGDATA      	""          	""          	0           	            	Yes         	1.0         	""          	1.0         	""          	;Used in Network Sizing
 24              	11              	91              	913.47      	12          	100         	0           	Open  	;
; SIZINGDATA      	""          	""          	0           	            	Yes         	1.0         	""          	1.0         	""          	;Used in Network Sizing
 25              	11              	62              	346.88      	12          	100         	0           	Open  	;
; SIZINGDATA      	""          	""          	0           	            	Yes         	1.0         	""          	1.0         	""          	;Used in Network Sizing
 26              	11              	88              	1335.49     	12          	100         	0           	Open  	;
; SIZINGDATA      	""          	""          	0           	            	Yes         	1.0         	""          	1.0         	""          	;Used in Network Sizing
 27              	12              	16              	473.81      	12          	100         	0           	Open  	;
; SIZINGDATA      	""          	""          	0           	            	Yes         	1.0         	""          	1.0         	""          	;Used in Network Sizing
 28              	12              	72              	441.78      	12          	100         	0           	Open  	;
; SIZINGDATA      	""          	""          	0           	            	Yes         	1.0         	""          	1.0         	""          	;Used in Network Sizing
 29              	12              	49              	153.47      	12          	100         	0           	Open  	;
; SIZINGDATA      	""          	""          	0           	            	Yes         	1.0         	""          	1.0         	""          	;Used in Network Sizing
 30              	13              	83              	1050.11     	12          	100         	0           	Open  	;
; SIZINGDATA      	""          	""          	0           	            	Yes         	1.0         	""          	1.0         	""          	;Used in Network Sizing
 31              	13              	33              	629.00      	12          	100         	0           	Open  	;
; SIZINGDATA      	""          	""          	0           	            	Yes         	1.0         	""          	1.0         	""          	;Used in Network Sizing
 32              	13              	27              	1171.00     	12          	100         	0           	Open  	;
; SIZINGDATA      	""          	""          	0           	            	Yes         	1.0         	""          	1.0         	""          	;Used in Network Sizing
 33              	14              	54              	750.91      	12          	100         	0           	Open  	;
; SIZINGDATA      	""          	""          	0           	            	Yes         	1.0         	""          	1.0         	""          	;Used in Network Sizing
 34              	14              	57              	666.61      	12          	100         	0           	Open  	;
; SIZINGDATA      	""          	""          	0           	            	Yes         	1.0         	""          	1.0         	""          	;Used in Network Sizing
 35              	14              	96              	567.44      	12          	100         	0           	Open  	;
; SIZINGDATA      	""          	""          	0           	            	Yes         	1.0         	""          	1.0         	""          	;Used in Network Sizing
 36              	15              	62              	527.91      	12          	100         	0           	Open  	;
; SIZINGDATA      	""          	""          	0           	            	Yes         	1.0         	""          	1.0         	""          	;Used in Network Sizing
 37              	15              	88              	595.15      	12          	100         	0           	Open  	;
; SIZINGDATA      	""          	""          	0           	            	Yes         	1.0         	""          	1.0         	""          	;Used in Network Sizing
 38              	17              	45              	964.70      	12          	100         	0           	Open  	;
; SIZINGDATA      	""          	""          	0           	            	Yes         	1.0         	""          	1.0         	""          	;Used in Network Sizing
 39              	17              	24              	198.49      	12          	100         	0           	Open  	;
; SIZINGDATA      	""          	""          	0           	            	Yes         	1.0         	""          	1.0         	""          	;Used in Network Sizing
 40              	17              	32              	449.37      	12          	100         	0           	Open  	;
; SIZINGDATA      	""          	""          	0           	            	Yes         	1.0         	""          	1.0         	""          	;Used in Network Sizing
 41              	18              	38              	1029.96     	12          	100         	0           	Open  	;
; SIZINGDATA      	""          	""          	0           	            	Yes         	1.0         	""          	1.0         	""          	;Used in Network Sizing
 42              	19              	37              	687.10      	12          	100         	0           	Open  	;
; SIZINGDATA      	""          	""          	0           	            	Yes         	1.0         	""          	1.0         	""          	;Used in Network Sizing
 43              	19              	94              	1334.54     	12          	100         	0           	Open  	;
; SIZINGDATA      	""          	""          	0           	            	Yes         	1.0         	""          	1.0         	""          	;Used in Network Sizing
 44              	20              	53              	434.33      	12          	100         	0           	Open  	;
; SIZINGDATA      	""          	""          	0           	            	Yes         	1.0         	""          	1.0         	""          	;Used in Network Sizing
 45              	21              	38              	897.23      	12          	100         	0           	Open  	;
; SIZINGDATA      	""          	""          	0           	            	Yes         	1.0         	""          	1.0         	""          	;Used in Network Sizing
 46              	21              	61              	1672.21     	12          	100         	0           	Open  	;
; SIZINGDATA      	""          	""          	0           	            	Yes         	1.0         	""          	1.0         	""          	;Used in Network Sizing
 47              	22              	31              	316.62      	12          	100         	0           	Open  	;
; SIZINGDATA      	""          	""          	0           	            	Yes         	1.0         	""          	1.0         	""          	;Used in Network Sizing
 48              	22              	61              	650.72      	12          	100         	0           	Open  	;
; SIZINGDATA      	""          	""          	0           	            	Yes         	1.0         	""          	1.0         	""          	;Used in Network Sizing
 49              	22              	84              	679.56      	12          	100         	0           	Open  	;
; SIZINGDATA      	""          	""          	0           	            	Yes         	1.0         	""          	1.0         	""          	;Used in Network Sizing
 50              	23              	33              	180.62      	12          	100         	0           	Open  	;
; SIZINGDATA      	""          	""          	0           	            	Yes         	1.0         	""          	1.0         	""          	;Used in Network Sizing
 51              	24              	27              	1077.31     	12          	100         	0           	Open  	;
; SIZINGDATA      	""          	""          	0           	            	Yes         	1.0         	""          	1.0         	""          	;Used in Network Sizing
 52              	24              	32              	264.92      	12          	100         	0           	Open  	;
; SIZINGDATA      	""          	""          	0           	            	Yes         	1.0         	""          	1.0         	""          	;Used in Network Sizing
 53              	25              	29              	68.82       	12          	100         	0           	Open  	;
; SIZINGDATA      	""          	""          	0           	            	Yes         	1.0         	""          	1.0         	""          	;Used in Network Sizing
 54              	25              	36              	661.21      	12          	100         	0           	Open  	;
; SIZINGDATA      	""          	""          	0           	            	Yes         	1.0         	""          	1.0         	""          	;Used in Network Sizing
 55              	25              	82              	1449.16     	12          	100         	0           	Open  	;
; SIZINGDATA      	""          	""          	0           	            	Yes         	1.0         	""          	1.0         	""          	;Used in Network Sizing
 56              	26              	86              	290.22      	12          	100         	0           	Open  	;
; SIZINGDATA      	""          	""          	0           	            	Yes         	1.0         	""          	1.0         	""          	;Used in Network Sizing
 57              	26              	83              	2474.10     	12          	100         	0           	Open  	;
; SIZINGDATA      	""          	""          	0           	            	Yes         	1.0         	""          	1.0         	""          	;Used in Network Sizing
 58              	26              	53              	2535.70     	12          	100         	0           	Open  	;
; SIZINGDATA      	""          	""          	0           	            	Yes         	1.0         	""          	1.0         	""          	;Used in Network Sizing
 59              	27              	82              	1094.11     	12          	100         	0           	Open  	;
; SIZINGDATA      	""          	""          	0           	            	Yes         	1.0         	""          	1.0         	""          	;Used in Network Sizing
 60              	28              	97              	870.58      	12          	100         	0           	Open  	;
; SIZINGDATA      	""          	""          	0           	            	Yes         	1.0         	""          	1.0         	""          	;Used in Network Sizing
 61              	28              	81              	257.16      	12          	100         	0           	Open  	;
; SIZINGDATA      	""          	""          	0           	            	Yes         	1.0         	""          	1.0         	""          	;Used in Network Sizing
 62              	28              	42              	671.04      	12          	100         	0           	Open  	;