[TITLE]


[JUNCTIONS]
;ID              	Elev        	Demand      	Pattern         
 2               	0           	0           	2               	;
 3               	0           	0           	2               	;
 4               	0           	0           	2               	;
 5               	0           	0           	2               	;
 6               	0           	0           	2               	;
 7               	0           	0           	2               	;
 8               	0           	0           	2               	;
 9               	0           	0           	2               	;
 10              	0           	0           	2               	;
 11              	0           	0           	2               	;
 12              	0           	0           	2               	;
 13              	0           	0           	2               	;
 14              	0           	0           	2               	;
 15              	0           	0           	2               	;
 16              	0           	0           	2               	;
 17              	0           	0           	2               	;
 18              	0           	0           	2               	;
 19              	0           	0           	2               	;
 20              	0           	0           	2               	;
 21              	0           	0           	2               	;
 22              	0           	0           	2               	;
 23              	0           	0           	2               	;
 24              	0           	0           	2               	;
 25              	0           	0           	2               	;
 26              	0           	0           	2               	;
 27              	0           	0           	2               	;
 28              	0           	0           	2               	;
 29              	0           	0           	2               	;
 30              	0           	0           	2               	;
 31              	0           	0           	2               	;
 32              	0           	0           	2               	;

[RESERVOIRS]
;ID              	Head        	Pattern         
 1               	130         	                	;

[TANKS]
;ID              	Elevation   	InitLevel   	MinLevel    	MaxLevel    	Diameter    	MinVol      	VolCurve

[PIPES]
;ID              	Node1           	Node2           	Length      	Diameter    	Roughness   	MinorLoss   	Status
 1               	1               	2               	100         	1016        	120         	0           	Open  	;
 2               	2               	3               	1350        	1016        	120         	0           	Open  	;
 3               	3               	4               	900         	1016        	120         	0           	Open  	;
 4               	4               	5               	1150        	1016        	120         	0           	Open  	;
 5               	5               	6               	1450        	1016        	120         	0           	Open  	;
 6               	6               	7               	450         	1016        	120         	0           	Open  	;
 7               	7               	8               	850         	1016        	120         	0           	Open  	;
 8               	8               	9               	850         	1016        	120         	0           	Open  	;
 9               	9               	10              	800         	1016        	120         	0           	Open  	;
 10              	10              	11              	950         	762         	120         	0           	Open  	;
 11              	11              	12              	1200        	610         	120         	0           	Open  	;
 12              	12              	13              	3500        	610         	120         	0           	Open  	;
 13              	10              	14              	800         	508         	120         	0           	Open  	;
 14              	14              	15              	500         	300         	120         	0           	Open  	;
 15              	15              	16              	550         	300         	120         	0           	Open  	;
 16              	16              	17              	2730        	300         	120         	0           	Open  	;
 17              	17              	18              	1750        	508         	120         	0           	Open  	;
 18              	18              	19              	800         	508         	120         	0           	Open  	;
 19              	19              	3               	400         	610         	120         	0           	Open  	;
 20              	3               	20              	2200        	1016        	120         	0           	Open  	;
 21              	20              	21              	1500        	508         	120         	0           	Open  	;
 22              	21              	22              	500         	300         	120         	0           	Open  	;
 23              	20              	23              	2650        	1016        	120         	0           	Open  	;
 24              	23              	24              	1230        	762         	120         	0           	Open  	;
 25              	24              	25              	1300        	762         	120         	0           	Open  	;
 26              	25              	26              	850         	508         	120         	0           	Open  	;
 27              	26              	27              	300         	300         	120         	0           	Open  	;
 28              	27              	16              	750         	300         	120         	0           	Open  	;
 29              	23              	28              	1500        	407         	120         	0           	Open  	;
 30              	28              	29              	2000        	300         	120         	0           	Open  	;
 31              	29              	30              	1600        	300         	120         	0           	Open  	;
 32              	30              	31              	150         	300         	120         	0           	Open  	;
 33              	31              	32              	860         	508         	120         	0           	Open  	;
 34              	32              	25              	950         	610         	120         	0           	Open  	;

[PUMPS]
;ID              	Node1           	Node2           	Parameters

[VALVES]
;ID              	Node1           	Node2           	Diameter    	Type	Setting     	MinorLoss   

[TAGS]

[DEMANDS]
;Junction        	Demand      	Pattern         	Category
 2               	0           	2               	; 
 2               	247.22      	1               	; 
 3               	0           	2               	; 
 3               	236.11      	1               	; 
 4               	0           	2               	; 
 4               	36.11       	1               	; 
 5               	0           	2               	; 
 5               	201.39      	1               	; 
 6               	0           	2               	; 
 6               	279.17      	1               	; 
 7               	0           	2               	; 
 7               	375         	1               	; 
 8               	0           	2               	; 
 8               	152.78      	1               	; 
 9               	0           	2               	; 
 9               	45.83       	1               	; 
 10              	0           	2               	; 
 10              	145.83      	1               	; 
 11              	0           	2               	; 
 11              	138.89      	1               	; 
 12              	0           	2               	; 
 12              	155.56      	1               	; 
 13              	0           	2               	; 
 13              	261.11      	1               	; 
 14              	0           	2               	; 
 14              	170.83      	1               	; 
 15              	0           	2               	; 
 15              	77.78       	1               	; 
 16              	0           	2               	; 
 16              	86.11       	1               	; 
 17              	0           	2               	; 
 17              	240.28      	1               	; 
 18              	0           	2               	; 
 18              	373.61      	1               	; 
 19              	0           	2               	; 
 19              	16.17       	1               	; 
 20              	0           	2               	; 
 20              	354.17      	1               	; 
 21              	0           	2               	; 
 21              	258.33      	1               	; 
 22              	0           	2               	; 
 22              	134.72      	1               	; 
 23              	0           	2               	; 
 23              	290.28      	1               	; 
 24              	0           	2               	; 
 24              	227.78      	1               	; 
 25              	0           	2               	; 
 25              	47.22       	1               	; 
 26              	0           	2               	; 
 26              	250         	1               	; 
 27              	0           	2               	; 
 27              	102.78      	1               	; 
 28              	0           	2               	; 
 28              	80.56       	1               	; 
 29              	0           	2               	; 
 29              	100         	1               	; 
 30              	0           	2               	; 
 30              	100         	1               	; 
 31              	0           	2               	; 
 31              	29.17       	1               	; 
 32              	0           	2               	; 
 32              	223.61      	1               	; 

[STATUS]
;ID              	Status/Setting

[PATTERNS]
;ID              	Multipliers
;demanda
 1               	0.55        	0.55        	0.625       	0.475       	0.45        	0.425       
 1               	0.4         	0.375       	0.4         	0.375       	0.425       	0.45        
 1               	0.4         	0.4         	0.425       	0.4         	0.425       	0.4         
 1               	0.425       	0.45        	0.35        	0.325       	0.35        	0.375       
 1               	0.45        	0.575       	0.55        	0.55        	0.6         	0.625       
 1               	0.725       	0.7         	0.775       	0.775       	0.9         	0.925       
 1               	0.725       	0.75        	0.725       	0.7         	0.85        	0.825       
 1               	0.775       	0.775       	0.725       	0.675       	0.625       	0.65        
 1               	0.65        	0.6         	0.525       	0.55        	0.525       	0.725       
 1               	0.45        	0.475       	0.575       	0.55        	0.45        	0.5         
 1               	0.475       	0.45        	0.425       	0.4         	0.375       	0.4         
 1               	0.55        	0.575       	0.35        	0.375       	0.35        	0.4         
 1               	0.375       	0.35        	0.325       	0.375       	0.525       	0.4         
 1               	0.35        	0.375       	0.375       	0.4         	0.425       	0.5         
 1               	0.575       	0.425       	0.35        	0.325       	0.35        	0.325       
 1               	0.35        	0.325       	0.35        	0.475       	0.3         	0.25        
;fugas
 2               	1           	1           	1           	1           	1           	1           
 2               	1           	1           	1           	1           	1           	1           
 2               	1           	1           	1           	1           	1           	1           
 2               	1           	1           	1           	1           	1           	1           
 2               	1           	1           	1           	1           	1           	1           
 2               	1           	1           	1           	1           	1           	1           
 2               	1           	1           	1           	1           	1           	1           
 2               	1           	1           	1           	1           	1           	1           
 2               	1           	1           	1           	1           	1           	1           
 2               	1           	1           	1           	1           	1           	1           
 2               	1           	1           	1           	1           	1           	1           
 2               	1           	1           	1           	1           	1           	1           
 2               	1           	1           	1           	1           	1           	1           
 2               	1           	1           	1           	1           	1           	1           
 2               	1           	1           	1           	1           	1           	1           
 2               	1           	1           	1           	1           	1           	1           

[CURVES]
;ID              	X-Value     	Y-Value

[CONTROLS]

[RULES]

[ENERGY]
 Global Efficiency  	75
 Global Price       	0
 Demand Charge      	0

[EMITTERS]
;Junction        	Coefficient

[QUALITY]
;Node            	InitQual

[SOURCES]
;Node            	Type        	Quality     	Pattern

[REACTIONS]
;Type     	Pipe/Tank       	Coefficient


[REACTIONS]
 Order Bulk            	1
 Order Tank            	1
 Order Wall            	1
 Global Bulk           	0
 Global Wall           	0
 Limiting Potential    	0
 Roughness Correlation 	0

[MIXING]
;Tank            	Model

[TIMES]
 Duration           	24
 Hydraulic Timestep 	0:15
 Quality Timestep   	0:05
 Pattern Timestep   	0:15
 Pattern Start      	0:00
 Report Timestep    	0:15
 Report Start       	0:00
 Start ClockTime    	12 am
 Statistic          	None

[REPORT]
 Status             	No
 Summary            	No
 Page               	0

[OPTIONS]
 Units              	LPS
 Headloss           	H-W
 Specific Gravity   	1
 Viscosity          	1
 Trials             	40
 Accuracy           	0.001
 Unbalanced         	Continue 10
 Pattern            	1
 Demand Multiplier  	1.0
 Emitter Exponent   	0.5
 Quality            	None mg/L
 Diffusivity        	1
 Tolerance          	0.01

[COORDINATES]
;Node            	X-Coord         	Y-Coord
 2               	3896.83         	9031.75         
 3               	3896.83         	7904.76         
 4               	3071.43         	7873.02         
 5               	2706.35         	6761.90         
 6               	2309.52         	5714.29         
 7               	2055.56         	5142.86         
 8               	1611.11         	4111.11         
 9               	1214.29         	3206.35         
 10              	833.33          	2269.84         
 11              	-39.68          	2238.10         
 12              	-1420.63        	2238.10         
 13              	-4293.65        	2269.84         
 14              	1865.08         	2190.48         
 15              	2595.24         	2063.49         
 16              	3468.25         	1841.27         
 17              	3833.33         	4174.60         
 18              	3896.83         	5746.03         
 19              	3896.83         	7206.35         
 20              	5928.57         	7920.63         
 21              	7214.29         	8000.00         
 22              	8325.40         	7904.76         
 23              	5912.70         	5539.68         
 24              	5611.11         	4047.62         
 25              	5198.41         	2253.97         
 26              	4769.84         	2031.75         
 27              	4150.79         	1857.14         
 28              	7690.48         	5412.70         
 29              	7357.14         	3761.90         
 30              	7208.33         	716.67          
 31              	6753.97         	1095.24         
 32              	6166.67         	1857.14         
 1               	3891.67         	9616.67         

[VERTICES]
;Link            	X-Coord         	Y-Coord

[LABELS]
;X-Coord           Y-Coord          Label & Anchor Node
 4025.00          9016.67          "1"                 
 4125.00          8200.00          "2"                 
 2858.33          8133.33          "3"                 
 2441.67          7016.67          "4"                 
 2058.33          5916.67          "5"                 
 1758.33          5333.33          "6"                 
 1425.00          4383.33          "7"                 
 1008.33          3450.00          "8"                 
 725.00           2050.00          "9"                 
 -141.67          1933.33          "10"                 
 -1525.00         2000.00          "11"                 
 -4425.00         2000.00          "12"                 
 1691.67          1833.33          "13"                 
 2441.67          1733.33          "14"                 
 3291.67          1616.67          "15"                 
 3975.00          4150.00          "16"                 
 4075.00          5783.33          "17"                 
 4025.00          7200.00          "18"                 
 5841.67          8266.67          "19"                 
 7108.33          7883.33          "20"                 
 8225.00          7766.67          "21"                 
 6008.33          5883.33          "22"                 
 5741.67          4116.67          "23"                 
 5475.00          2633.33          "24"                 
 4708.33          1750.00          "25"                 
 4075.00          1583.33          "26"                 
 7858.33          5550.00          "27"                 
 7491.67          3833.33          "28"                 
 7341.67          716.67           "29"                 
 6558.33          916.67           "30"                 
 5958.33          1616.67          "31"                 

[BACKDROP]
 DIMENSIONS     	0.00            	0.00            	10000.00        	10000.00        
 UNITS          	Ninguno
 FILE           	
 OFFSET         	0.00            	0.00            

[END]
